#======================================================================

# CRYSTAL DATA

#----------------------------------------------------------------------

data_VESTA_phase_1


_pd_phase_name                         'XCrySDen XSF file'
_cell_length_a                         3.92980
_cell_length_b                         3.92980
_cell_length_c                         77.11697
_cell_angle_alpha                      90
_cell_angle_beta                       90
_cell_angle_gamma                      90
_symmetry_space_group_name_H-M         'P 1'
_symmetry_Int_Tables_number            1

loop_
_symmetry_equiv_pos_as_xyz
   'x, y, z'

loop_
   _atom_site_label
   _atom_site_occupancy
   _atom_site_fract_x
   _atom_site_fract_y
   _atom_site_fract_z
   _atom_site_adp_type
   _atom_site_B_iso_or_equiv
   _atom_site_type_symbol
   Sr1        1.0     0.500000      0.500000      0.025280     Biso  1.000000 Sr
   Sr2        1.0     0.500000      0.500000      0.075839     Biso  1.000000 Sr
   Sr3        1.0     0.500000      0.500000      0.126399     Biso  1.000000 Sr
   Sr4        1.0     0.500000      0.500000      0.176958     Biso  1.000000 Sr
   Ti1        1.0     0.000000      0.000000      0.000000     Biso  1.000000 Ti
   Ti2        1.0     0.000000      0.000000      0.202238     Biso  1.000000 Ti
   Ti3        1.0     0.000000      0.000000      0.050560     Biso  1.000000 Ti
   Ti4        1.0     0.000000      0.000000      0.101119     Biso  1.000000 Ti
   Ti5        1.0     0.000000      0.000000      0.151679     Biso  1.000000 Ti
   O1         1.0     0.500000      0.000000      0.000000     Biso  1.000000 O
   O2         1.0     0.500000      0.000000      0.202238     Biso  1.000000 O
   O3         1.0     0.500000      0.000000      0.050560     Biso  1.000000 O
   O4         1.0     0.500000      0.000000      0.101119     Biso  1.000000 O
   O5         1.0     0.500000      0.000000      0.151679     Biso  1.000000 O
   O6         1.0     0.000000      0.500000      0.000000     Biso  1.000000 O
   O7         1.0     0.000000      0.500000      0.202238     Biso  1.000000 O
   O8         1.0     0.000000      0.500000      0.050560     Biso  1.000000 O
   O9         1.0     0.000000      0.500000      0.101119     Biso  1.000000 O
   O10        1.0     0.000000      0.500000      0.151679     Biso  1.000000 O
   O11        1.0     0.000000      0.000000      0.025280     Biso  1.000000 O
   O12        1.0     0.000000      0.000000      0.075839     Biso  1.000000 O
   O13        1.0     0.000000      0.000000      0.126399     Biso  1.000000 O
   O14        1.0     0.000000      0.000000      0.176958     Biso  1.000000 O
   Ba1        1.0     0.500000      0.500000      0.229837     Biso  1.000000 Ba
   Ba2        1.0     0.500000      0.500000      0.380651     Biso  1.000000 Ba
   Ba3        1.0     0.500000      0.500000      0.531464     Biso  1.000000 Ba
   Ba4        1.0     0.500000      0.500000      0.682278     Biso  1.000000 Ba
   Ba5        1.0     0.500000      0.500000      0.325453     Biso  1.000000 Ba
   Ba6        1.0     0.500000      0.500000      0.476267     Biso  1.000000 Ba
   Ba7        1.0     0.500000      0.500000      0.627080     Biso  1.000000 Ba
   Ba8        1.0     0.500000      0.500000      0.777894     Biso  1.000000 Ba
   Y1         1.0     0.500000      0.500000      0.277645     Biso  1.000000 Y
   Y2         1.0     0.500000      0.500000      0.428459     Biso  1.000000 Y
   Y3         1.0     0.500000      0.500000      0.579272     Biso  1.000000 Y
   Y4         1.0     0.500000      0.500000      0.730086     Biso  1.000000 Y
   Cu1        1.0     0.000000      0.000000      0.805493     Biso  1.000000 Cu
   Cu2        1.0     0.000000      0.000000      0.353052     Biso  1.000000 Cu
   Cu3        1.0     0.000000      0.000000      0.503866     Biso  1.000000 Cu
   Cu4        1.0     0.000000      0.000000      0.654679     Biso  1.000000 Cu
   Cu5        1.0     0.000000      0.000000      0.255671     Biso  1.000000 Cu
   Cu6        1.0     0.000000      0.000000      0.406485     Biso  1.000000 Cu
   Cu7        1.0     0.000000      0.000000      0.557299     Biso  1.000000 Cu
   Cu8        1.0     0.000000      0.000000      0.708113     Biso  1.000000 Cu
   Cu9        1.0     0.000000      0.000000      0.299619     Biso  1.000000 Cu
   Cu10       1.0     0.000000      0.000000      0.450432     Biso  1.000000 Cu
   Cu11       1.0     0.000000      0.000000      0.601246     Biso  1.000000 Cu
   Cu12       1.0     0.000000      0.000000      0.752060     Biso  1.000000 Cu
   O15        1.0     0.000000      0.000000      0.226248     Biso  1.000000 O
   O16        1.0     0.000000      0.000000      0.377061     Biso  1.000000 O
   O17        1.0     0.000000      0.000000      0.527875     Biso  1.000000 O
   O18        1.0     0.000000      0.000000      0.678689     Biso  1.000000 O
   O19        1.0     0.000000      0.000000      0.329042     Biso  1.000000 O
   O20        1.0     0.000000      0.000000      0.479856     Biso  1.000000 O
   O21        1.0     0.000000      0.000000      0.630670     Biso  1.000000 O
   O22        1.0     0.000000      0.000000      0.781483     Biso  1.000000 O
   O23        1.0     0.500000      0.000000      0.259004     Biso  1.000000 O
   O24        1.0     0.500000      0.000000      0.409818     Biso  1.000000 O
   O25        1.0     0.500000      0.000000      0.560632     Biso  1.000000 O
   O26        1.0     0.500000      0.000000      0.711446     Biso  1.000000 O
   O27        1.0     0.500000      0.000000      0.296286     Biso  1.000000 O
   O28        1.0     0.500000      0.000000      0.447099     Biso  1.000000 O
   O29        1.0     0.500000      0.000000      0.597913     Biso  1.000000 O
   O30        1.0     0.500000      0.000000      0.748727     Biso  1.000000 O
   O31        1.0     0.000000      0.500000      0.259140     Biso  1.000000 O
   O32        1.0     0.000000      0.500000      0.409954     Biso  1.000000 O
   O33        1.0     0.000000      0.500000      0.560768     Biso  1.000000 O
   O34        1.0     0.000000      0.500000      0.711581     Biso  1.000000 O
   O35        1.0     0.000000      0.500000      0.296150     Biso  1.000000 O
   O36        1.0     0.000000      0.500000      0.446964     Biso  1.000000 O
   O37        1.0     0.000000      0.500000      0.597777     Biso  1.000000 O
   O38        1.0     0.000000      0.500000      0.748591     Biso  1.000000 O
   O39        1.0     0.000000      0.500000      0.805493     Biso  1.000000 O
   O40        1.0     0.000000      0.500000      0.353052     Biso  1.000000 O
   O41        1.0     0.000000      0.500000      0.503866     Biso  1.000000 O
   O42        1.0     0.000000      0.500000      0.654679     Biso  1.000000 O
