#======================================================================

# CRYSTAL DATA

#----------------------------------------------------------------------

data_VESTA_phase_1


_pd_phase_name                         'Ba2 Cu3 O7 Y'
_cell_length_a                         3.8124(2)
_cell_length_b                         3.8807(2)
_cell_length_c                         46.521(2)
_cell_angle_alpha                      90
_cell_angle_beta                       90
_cell_angle_gamma                      90
_symmetry_space_group_name_H-M         'P 1'
_symmetry_Int_Tables_number            1

loop_
_symmetry_equiv_pos_as_xyz
   'x, y, z'

loop_
   _atom_site_label
   _atom_site_occupancy
   _atom_site_fract_x
   _atom_site_fract_y
   _atom_site_fract_z
   _atom_site_adp_type
   _atom_site_B_iso_or_equiv
   _atom_site_type_symbol
   Ba1        1.0     0.500000      0.500000      0.04575(8)   Biso  1.000000 Ba
   Ba1        1.0     0.500000      0.500000      0.29575(8)   Biso  1.000000 Ba
   Ba1        1.0     0.500000      0.500000      0.54575(8)   Biso  1.000000 Ba
   Ba1        1.0     0.500000      0.500000      0.79575(8)   Biso  1.000000 Ba
   Ba1        1.0     0.500000      0.500000      0.20425(8)   Biso  1.000000 Ba
   Ba1        1.0     0.500000      0.500000      0.45425(8)   Biso  1.000000 Ba
   Ba1        1.0     0.500000      0.500000      0.70425(8)   Biso  1.000000 Ba
   Ba1        1.0     0.500000      0.500000      0.95425(8)   Biso  1.000000 Ba
   Y1         1.0     0.500000      0.500000      0.125000     Biso  1.000000 Y
   Y1         1.0     0.500000      0.500000      0.375000     Biso  1.000000 Y
   Y1         1.0     0.500000      0.500000      0.625000     Biso  1.000000 Y
   Y1         1.0     0.500000      0.500000      0.875000     Biso  1.000000 Y
   Cu1        1.0     0.000000      0.000000      0.000000     Biso  1.000000 Cu
   Cu1        1.0     0.000000      0.000000      0.250000     Biso  1.000000 Cu
   Cu1        1.0     0.000000      0.000000      0.500000     Biso  1.000000 Cu
   Cu1        1.0     0.000000      0.000000      0.750000     Biso  1.000000 Cu
   Cu2        1.0     0.000000      0.000000      0.08857(5)   Biso  1.000000 Cu
   Cu2        1.0     0.000000      0.000000      0.33858(5)   Biso  1.000000 Cu
   Cu2        1.0     0.000000      0.000000      0.58858(5)   Biso  1.000000 Cu
   Cu2        1.0     0.000000      0.000000      0.83858(5)   Biso  1.000000 Cu
   Cu2        1.0     0.000000      0.000000      0.16142(5)   Biso  1.000000 Cu
   Cu2        1.0     0.000000      0.000000      0.41142(5)   Biso  1.000000 Cu
   Cu2        1.0     0.000000      0.000000      0.66142(5)   Biso  1.000000 Cu
   Cu2        1.0     0.000000      0.000000      0.91142(5)   Biso  1.000000 Cu
   O1         1.0     0.000000      0.000000      0.03980(8)   Biso  1.000000 O
   O1         1.0     0.000000      0.000000      0.28980(8)   Biso  1.000000 O
   O1         1.0     0.000000      0.000000      0.53980(8)   Biso  1.000000 O
   O1         1.0     0.000000      0.000000      0.78980(8)   Biso  1.000000 O
   O1         1.0     0.000000      0.000000      0.21020(8)   Biso  1.000000 O
   O1         1.0     0.000000      0.000000      0.46020(8)   Biso  1.000000 O
   O1         1.0     0.000000      0.000000      0.71020(8)   Biso  1.000000 O
   O1         1.0     0.000000      0.000000      0.96020(8)   Biso  1.000000 O
   O2         1.0     0.500000      0.000000      0.09410(8)   Biso  1.000000 O
   O2         1.0     0.500000      0.000000      0.34410(8)   Biso  1.000000 O
   O2         1.0     0.500000      0.000000      0.59410(8)   Biso  1.000000 O
   O2         1.0     0.500000      0.000000      0.84410(8)   Biso  1.000000 O
   O2         1.0     0.500000      0.000000      0.15590(8)   Biso  1.000000 O
   O2         1.0     0.500000      0.000000      0.40590(8)   Biso  1.000000 O
   O2         1.0     0.500000      0.000000      0.65590(8)   Biso  1.000000 O
   O2         1.0     0.500000      0.000000      0.90590(8)   Biso  1.000000 O
   O3         1.0     0.000000      0.500000      0.09432(10)  Biso  1.000000 O
   O3         1.0     0.000000      0.500000      0.34433(10)  Biso  1.000000 O
   O3         1.0     0.000000      0.500000      0.59433(10)  Biso  1.000000 O
   O3         1.0     0.000000      0.500000      0.84433(10)  Biso  1.000000 O
   O3         1.0     0.000000      0.500000      0.15567(10)  Biso  1.000000 O
   O3         1.0     0.000000      0.500000      0.40567(10)  Biso  1.000000 O
   O3         1.0     0.000000      0.500000      0.65567(10)  Biso  1.000000 O
   O3         1.0     0.000000      0.500000      0.90567(10)  Biso  1.000000 O
   O4         1.0     0.000000      0.500000      0.000000     Biso 620.217041 O
   O4         1.0     0.000000      0.500000      0.250000     Biso 620.217041 O
   O4         1.0     0.000000      0.500000      0.500000     Biso 620.217041 O
   O4         1.0     0.000000      0.500000      0.750000     Biso 620.217041 O

loop_
   _atom_site_aniso_label
   _atom_site_aniso_U_11
   _atom_site_aniso_U_22
   _atom_site_aniso_U_33
   _atom_site_aniso_U_12
   _atom_site_aniso_U_13
   _atom_site_aniso_U_23
   Ba1	 0.00000  0.00000  0.00000  0.00000  0.00000  0.00000
   Ba1	 0.00000  0.00000  0.00000  0.00000  0.00000  0.00000
   Ba1	 0.00000  0.00000  0.00000  0.00000  0.00000  0.00000
   Ba1	 0.00000  0.00000  0.00000  0.00000  0.00000  0.00000
   Ba1	 0.00000  0.00000  0.00000  0.00000  0.00000  0.00000
   Ba1	 0.00000  0.00000  0.00000  0.00000  0.00000  0.00000
   Ba1	 0.00000  0.00000  0.00000  0.00000  0.00000  0.00000
   Ba1	 0.00000  0.00000  0.00000  0.00000  0.00000  0.00000
   Y1	 0.00000  0.00000  0.00000  0.00000  0.00000  0.00000
   Y1	 0.00000  0.00000  0.00000  0.00000  0.00000  0.00000
   Y1	 0.00000  0.00000  0.00000  0.00000  0.00000  0.00000
   Y1	 0.00000  0.00000  0.00000  0.00000  0.00000  0.00000
   Cu1	 0.00000  0.00000  0.00000  0.00000  0.00000  0.00000
   Cu1	 0.00000  0.00000  0.00000  0.00000  0.00000  0.00000
   Cu1	 0.00000  0.00000  0.00000  0.00000  0.00000  0.00000
   Cu1	 0.00000  0.00000  0.00000  0.00000  0.00000  0.00000
   Cu2	 0.00000  0.00000  0.00000  0.00000  0.00000  0.00000
   Cu2	 0.00000  0.00000  0.00000  0.00000  0.00000  0.00000
   Cu2	 0.00000  0.00000  0.00000  0.00000  0.00000  0.00000
   Cu2	 0.00000  0.00000  0.00000  0.00000  0.00000  0.00000
   Cu2	 0.00000  0.00000  0.00000  0.00000  0.00000  0.00000
   Cu2	 0.00000  0.00000  0.00000  0.00000  0.00000  0.00000
   Cu2	 0.00000  0.00000  0.00000  0.00000  0.00000  0.00000
   Cu2	 0.00000  0.00000  0.00000  0.00000  0.00000  0.00000
   O1	 0.00000  0.00000  0.00000  0.00000  0.00000  0.00000
   O1	 0.00000  0.00000  0.00000  0.00000  0.00000  0.00000
   O1	 0.00000  0.00000  0.00000  0.00000  0.00000  0.00000
   O1	 0.00000  0.00000  0.00000  0.00000  0.00000  0.00000
   O1	 0.00000  0.00000  0.00000  0.00000  0.00000  0.00000
   O1	 0.00000  0.00000  0.00000  0.00000  0.00000  0.00000
   O1	 0.00000  0.00000  0.00000  0.00000  0.00000  0.00000
   O1	 0.00000  0.00000  0.00000  0.00000  0.00000  0.00000
   O2	 0.00000  0.00000  0.00000  0.00000  0.00000  0.00000
   O2	 0.00000  0.00000  0.00000  0.00000  0.00000  0.00000
   O2	 0.00000  0.00000  0.00000  0.00000  0.00000  0.00000
   O2	 0.00000  0.00000  0.00000  0.00000  0.00000  0.00000
   O2	 0.00000  0.00000  0.00000  0.00000  0.00000  0.00000
   O2	 0.00000  0.00000  0.00000  0.00000  0.00000  0.00000
   O2	 0.00000  0.00000  0.00000  0.00000  0.00000  0.00000
   O2	 0.00000  0.00000  0.00000  0.00000  0.00000  0.00000
   O3	 0.00000  0.00000  0.00000  0.00000  0.00000  0.00000
   O3	 0.00000  0.00000  0.00000  0.00000  0.00000  0.00000
   O3	 0.00000  0.00000  0.00000  0.00000  0.00000  0.00000
   O3	 0.00000  0.00000  0.00000  0.00000  0.00000  0.00000
   O3	 0.00000  0.00000  0.00000  0.00000  0.00000  0.00000
   O3	 0.00000  0.00000  0.00000  0.00000  0.00000  0.00000
   O3	 0.00000  0.00000  0.00000  0.00000  0.00000  0.00000
   O3	 0.00000  0.00000  0.00000  0.00000  0.00000  0.00000
   O4	23.25503 22.58975 419.31796  0.00000  0.00000  0.00000
   O4	23.25503 22.58975 419.31796  0.00000  0.00000  0.00000
   O4	23.25503 22.58975 419.31796  0.00000  0.00000  0.00000
   O4	23.25503 22.58975 419.31796  0.00000  0.00000  0.00000
